Version 4
SHEET 1 880 680
FLAG 48 48 X0
IOPIN 48 48 In
FLAG 48 80 Y0
IOPIN 48 80 In
FLAG 48 176 X1
IOPIN 48 176 In
FLAG 48 208 Y1
IOPIN 48 208 In
FLAG 48 304 X2
IOPIN 48 304 In
FLAG 48 336 Y2
IOPIN 48 336 In
FLAG 48 432 X3
IOPIN 48 432 In
FLAG 48 464 Y3
IOPIN 48 464 In
FLAG 160 64 S0
IOPIN 160 64 Out
FLAG 160 192 S1
IOPIN 160 192 Out
FLAG 160 320 S2
IOPIN 160 320 Out
FLAG 160 448 S3
IOPIN 160 448 Out
SYMBOL 74HCT\\74hct08 96 0 R0
SYMATTR InstName U1
SYMBOL 74HCT\\74hct08 96 128 R0
SYMATTR InstName U2
SYMBOL 74HCT\\74hct08 96 256 R0
SYMATTR InstName U3
SYMBOL 74HCT\\74hct08 96 384 R0
SYMATTR InstName U4
TEXT -64 8 Left 2 !.lib 74hct.lib
