Version 4
SHEET 1 880 1272
WIRE 192 64 144 64
WIRE 192 96 192 64
WIRE 192 128 176 128
WIRE 64 224 48 224
WIRE 64 256 48 256
WIRE 176 272 176 240
WIRE 176 304 160 304
WIRE 64 400 48 400
WIRE 64 432 48 432
WIRE 176 448 176 416
WIRE 176 480 160 480
WIRE 64 576 48 576
WIRE 64 608 48 608
WIRE 176 624 176 592
WIRE 176 656 160 656
WIRE 64 752 48 752
WIRE 64 784 48 784
WIRE 176 800 176 768
WIRE 176 832 160 832
FLAG 144 64 Overflow_SOMA
IOPIN 144 64 In
FLAG 176 128 Overflow_MULT
IOPIN 176 128 In
FLAG 304 112 Oveflow
IOPIN 304 112 Out
FLAG 160 304 S0_MULT
IOPIN 160 304 In
FLAG 48 256 S0_SUB
IOPIN 48 256 In
FLAG 48 224 S0_SOMA
IOPIN 48 224 In
FLAG 288 288 S0
IOPIN 288 288 Out
FLAG 160 480 S1_MULT
IOPIN 160 480 In
FLAG 48 432 S1_SUB
IOPIN 48 432 In
FLAG 48 400 S1_SOMA
IOPIN 48 400 In
FLAG 288 464 S1
IOPIN 288 464 Out
FLAG 160 656 S2_MULT
IOPIN 160 656 In
FLAG 48 608 S2_SUB
IOPIN 48 608 In
FLAG 48 576 S2_SOMA
IOPIN 48 576 In
FLAG 288 640 S2
IOPIN 288 640 Out
FLAG 160 832 S3_MULT
IOPIN 160 832 In
FLAG 48 784 S3_SUB
IOPIN 48 784 In
FLAG 48 752 S3_SOMA
IOPIN 48 752 In
FLAG 288 816 S3
IOPIN 288 816 Out
SYMBOL 74HCT\\74hct32 240 48 R0
SYMATTR InstName U2
SYMBOL 74HCT\\74hct32 224 224 R0
WINDOW 3 -59 -9 Left 2
SYMATTR InstName U3
SYMBOL 74HCT\\74hct32 112 176 R0
WINDOW 3 -59 -9 Left 2
SYMATTR InstName U4
SYMBOL 74HCT\\74hct32 224 400 R0
WINDOW 3 -59 -9 Left 2
SYMATTR InstName U5
SYMBOL 74HCT\\74hct32 112 352 R0
WINDOW 3 -59 -9 Left 2
SYMATTR InstName U6
SYMBOL 74HCT\\74hct32 224 576 R0
WINDOW 3 -59 -9 Left 2
SYMATTR InstName U7
SYMBOL 74HCT\\74hct32 112 528 R0
WINDOW 3 -59 -9 Left 2
SYMATTR InstName U8
SYMBOL 74HCT\\74hct32 224 752 R0
WINDOW 3 -59 -9 Left 2
SYMATTR InstName U9
SYMBOL 74HCT\\74hct32 112 704 R0
WINDOW 3 -59 -9 Left 2
SYMATTR InstName U10
