Version 4
SHEET 1 1264 832
WIRE 144 -336 -48 -336
WIRE 160 -336 144 -336
WIRE 128 -304 -48 -304
WIRE 160 -304 128 -304
WIRE 112 -272 -48 -272
WIRE 160 -272 112 -272
WIRE 96 -240 -48 -240
WIRE 160 -240 96 -240
WIRE 496 -224 352 -224
WIRE 80 -208 -48 -208
WIRE 160 -208 80 -208
WIRE 64 -176 -48 -176
WIRE 160 -176 64 -176
WIRE 48 -144 -48 -144
WIRE 160 -144 48 -144
WIRE 512 -144 256 -144
WIRE 480 -128 272 -128
WIRE 784 -128 624 -128
WIRE 32 -112 -48 -112
WIRE 160 -112 32 -112
WIRE 464 -112 288 -112
WIRE 496 -112 496 -224
WIRE 512 -112 496 -112
WIRE 448 -96 304 -96
WIRE 784 -96 640 -96
WIRE 144 -80 144 -336
WIRE 256 -80 256 -144
WIRE 256 -80 144 -80
WIRE 432 -80 320 -80
WIRE 128 -64 128 -304
WIRE 272 -64 272 -128
WIRE 272 -64 128 -64
WIRE 416 -64 336 -64
WIRE 784 -64 656 -64
WIRE 112 -48 112 -272
WIRE 288 -48 288 -112
WIRE 288 -48 112 -48
WIRE 400 -48 352 -48
WIRE 96 -32 96 -240
WIRE 304 -32 304 -96
WIRE 304 -32 96 -32
WIRE 384 -32 368 -32
WIRE 784 -32 672 -32
WIRE 80 -16 80 -208
WIRE 320 -16 320 -80
WIRE 320 -16 80 -16
WIRE 480 -16 480 -128
WIRE 512 -16 480 -16
WIRE 64 0 64 -176
WIRE 336 0 336 -64
WIRE 336 0 64 0
WIRE 640 0 640 -96
WIRE 640 0 624 0
WIRE 784 0 688 0
WIRE 48 16 48 -144
WIRE 352 16 352 -48
WIRE 352 16 48 16
WIRE 496 16 496 -112
WIRE 512 16 496 16
WIRE 32 32 32 -112
WIRE 368 32 368 -32
WIRE 368 32 32 32
WIRE 784 32 704 32
WIRE 784 64 720 64
WIRE 784 96 736 96
WIRE 464 112 464 -112
WIRE 512 112 464 112
WIRE 656 128 656 -64
WIRE 656 128 624 128
WIRE 496 144 496 16
WIRE 512 144 496 144
WIRE 448 240 448 -96
WIRE 512 240 448 240
WIRE 672 256 672 -32
WIRE 672 256 624 256
WIRE 496 272 496 144
WIRE 512 272 496 272
WIRE 432 368 432 -80
WIRE 512 368 432 368
WIRE 688 384 688 0
WIRE 688 384 624 384
WIRE 496 400 496 272
WIRE 512 400 496 400
WIRE 416 496 416 -64
WIRE 512 496 416 496
WIRE 704 512 704 32
WIRE 704 512 624 512
WIRE 496 528 496 400
WIRE 512 528 496 528
WIRE 400 624 400 -48
WIRE 512 624 400 624
WIRE 720 640 720 64
WIRE 720 640 624 640
WIRE 496 656 496 528
WIRE 512 656 496 656
WIRE 384 752 384 -32
WIRE 512 752 384 752
WIRE 736 768 736 96
WIRE 736 768 624 768
WIRE 496 784 496 656
WIRE 512 784 496 784
FLAG -48 -336 X0
IOPIN -48 -336 In
FLAG -48 -304 X1
IOPIN -48 -304 In
FLAG -48 -272 X2
IOPIN -48 -272 In
FLAG -48 -240 X3
IOPIN -48 -240 In
FLAG -48 -208 Y0
IOPIN -48 -208 In
FLAG -48 -176 Y1
IOPIN -48 -176 In
FLAG -48 -144 Y2
IOPIN -48 -144 In
FLAG -48 -112 Y3
IOPIN -48 -112 In
FLAG 976 -80 X>Y
IOPIN 976 -80 Out
SYMBOL Subtrator4B 880 -16 R0
SYMATTR InstName X1
SYMBOL ComparadorIgual 192 -224 R0
SYMATTR InstName X2
SYMBOL 74HCT\\74hct08 560 -192 R0
SYMATTR InstName U1
SYMBOL 74HCT\\74hct08 560 -64 R0
SYMATTR InstName U2
SYMBOL 74HCT\\74hct08 560 64 R0
SYMATTR InstName U3
SYMBOL 74HCT\\74hct08 560 192 R0
SYMATTR InstName U4
SYMBOL 74HCT\\74hct08 560 320 R0
SYMATTR InstName U5
SYMBOL 74HCT\\74hct08 560 448 R0
SYMATTR InstName U6
SYMBOL 74HCT\\74hct08 560 576 R0
SYMATTR InstName U7
SYMBOL 74HCT\\74hct08 560 704 R0
SYMATTR InstName U8
SYMBOL 74HCT\\74hct04 288 -288 R0
SYMATTR InstName U9
TEXT 808 144 Left 2 !.lib 74hct.lib
