Version 4
SHEET 1 880 680
WIRE 0 112 -16 112
WIRE 0 144 -16 144
WIRE 0 176 -16 176
WIRE 0 208 -16 208
FLAG -112 48 X0
IOPIN -112 48 In
FLAG -112 80 X1
IOPIN -112 80 In
FLAG -112 112 X2
IOPIN -112 112 In
FLAG -112 144 X3
IOPIN -112 144 In
FLAG -112 176 Y0
IOPIN -112 176 In
FLAG -112 208 Y1
IOPIN -112 208 In
FLAG -112 240 Y2
IOPIN -112 240 In
FLAG -112 272 Y3
IOPIN -112 272 In
FLAG 208 160 S
IOPIN 208 160 Out
SYMBOL XORs -64 160 R0
SYMATTR InstName X1
SYMBOL NOTs 48 160 R0
SYMATTR InstName X2
SYMBOL 74HCT\\74hct21 144 64 R0
SYMATTR InstName U1
TEXT -8 280 Left 2 !.lib 74hct.lib
