Version 4
SHEET 1 880 680
WIRE 128 80 96 80
WIRE 128 112 96 112
WIRE 128 144 96 144
WIRE 128 176 96 176
WIRE 128 208 96 208
WIRE 128 240 96 240
WIRE 128 272 96 272
WIRE 128 304 96 304
FLAG 96 80 X0
IOPIN 96 80 In
FLAG 96 112 X1
IOPIN 96 112 In
FLAG 96 144 X2
IOPIN 96 144 In
FLAG 96 176 X3
IOPIN 96 176 In
FLAG 96 208 Y0
IOPIN 96 208 In
FLAG 96 240 Y1
IOPIN 96 240 In
FLAG 96 272 Y2
IOPIN 96 272 In
FLAG 96 304 Y3
IOPIN 96 304 In
FLAG 432 128 X<Y
IOPIN 432 128 Out
SYMBOL Subtrator4B 224 192 R0
SYMATTR InstName X1
SYMBOL 74HCT\\74hct04 368 64 R0
SYMATTR InstName U1
