Version 4
SHEET 1 880 680
WIRE -384 -128 -448 -128
WIRE -240 -128 -384 -128
WIRE -384 -48 -384 -128
WIRE -384 80 -384 -48
WIRE -384 208 -384 80
WIRE -384 336 -384 208
FLAG -272 -16 X0
IOPIN -272 -16 In
FLAG -272 112 X1
IOPIN -272 112 In
FLAG -272 240 X2
IOPIN -272 240 In
FLAG -272 368 X3
IOPIN -272 368 In
FLAG -240 -128 S0
IOPIN -240 -128 Out
FLAG -160 -32 S1
IOPIN -160 -32 Out
FLAG -160 96 S2
IOPIN -160 96 Out
FLAG -160 224 S3
IOPIN -160 224 Out
FLAG -528 -128 0
FLAG -160 352 Overflow
IOPIN -160 352 Out
SYMBOL voltage -432 -128 R90
WINDOW 0 -32 56 VBottom 2
WINDOW 3 32 56 VTop 2
WINDOW 123 0 0 Left 2
WINDOW 39 0 0 Left 2
SYMATTR InstName V1
SYMATTR Value 0
SYMBOL 74HCT\\74hct08 -224 -96 R0
SYMATTR InstName U1
SYMBOL 74HCT\\74hct08 -224 32 R0
SYMATTR InstName U2
SYMBOL 74HCT\\74hct08 -224 160 R0
SYMATTR InstName U3
SYMBOL 74HCT\\74hct08 -224 288 R0
SYMATTR InstName U4
SYMBOL 74HCT\\74hct04 -336 -112 R0
WINDOW 3 -156 66 Left 2
SYMATTR InstName U5
SYMBOL 74HCT\\74hct04 -336 16 R0
WINDOW 3 -160 66 Left 2
SYMATTR InstName U6
SYMBOL 74HCT\\74hct04 -336 144 R0
WINDOW 3 -155 60 Left 2
SYMATTR InstName U7
SYMBOL 74HCT\\74hct04 -336 272 R0
WINDOW 3 -148 63 Left 2
SYMATTR InstName U8
TEXT -416 -160 Left 2 !.lib 74hct.lib
