Version 4
SHEET 1 880 680
WIRE 0 160 0 32
WIRE 0 288 0 160
WIRE 0 368 0 288
WIRE 0 368 -64 368
WIRE 224 368 0 368
WIRE -144 384 -144 368
FLAG 112 0 X1
IOPIN 112 0 In
FLAG 112 128 X2
IOPIN 112 128 In
FLAG 112 256 X3
IOPIN 112 256 In
FLAG -144 384 0
FLAG 224 16 S0
IOPIN 224 16 Out
FLAG 224 144 S1
IOPIN 224 144 Out
FLAG 224 272 S2
IOPIN 224 272 Out
FLAG 224 368 S3
IOPIN 224 368 Out
SYMBOL voltage -48 368 R90
WINDOW 0 -32 56 VBottom 2
WINDOW 3 32 56 VTop 2
WINDOW 123 0 0 Left 2
WINDOW 39 0 0 Left 2
SYMATTR InstName V1
SYMATTR Value 0
SYMBOL 74HCT\\74hct08 160 -48 R0
SYMATTR InstName U1
SYMBOL 74HCT\\74hct08 160 80 R0
SYMATTR InstName U2
SYMBOL 74HCT\\74hct08 160 208 R0
SYMATTR InstName U3
SYMBOL 74HCT\\74hct04 48 224 R0
SYMATTR InstName U4
SYMBOL 74HCT\\74hct04 48 96 R0
SYMATTR InstName U5
SYMBOL 74HCT\\74hct04 48 -32 R0
SYMATTR InstName U6
TEXT 16 168 Left 2 !.lib 74hct.lib
