Version 4
SHEET 1 880 680
WIRE -16 32 -16 -48
WIRE -16 32 -32 32
WIRE -16 48 -16 32
WIRE -16 80 -48 80
WIRE -16 176 -48 176
WIRE -32 208 -32 32
WIRE -16 208 -32 208
WIRE -16 304 -48 304
WIRE -32 336 -32 208
WIRE -16 336 -32 336
WIRE -16 432 -48 432
WIRE -32 464 -32 336
WIRE -16 464 -32 464
FLAG -48 80 X0
IOPIN -48 80 In
FLAG -48 176 X1
IOPIN -48 176 In
FLAG -48 304 X2
IOPIN -48 304 In
FLAG -48 432 X3
IOPIN -48 432 In
FLAG -96 -48 0
FLAG 96 448 S0
IOPIN 96 448 Out
FLAG 96 64 S1
IOPIN 96 64 Out
FLAG 96 192 S2
IOPIN 96 192 Out
FLAG 96 320 S3
IOPIN 96 320 Out
SYMBOL 74HCT\\74hct08 32 0 R0
SYMATTR InstName U1
SYMBOL 74HCT\\74hct08 32 128 R0
SYMATTR InstName U2
SYMBOL 74HCT\\74hct08 32 256 R0
SYMATTR InstName U3
SYMBOL 74HCT\\74hct08 32 384 R0
SYMATTR InstName U4
SYMBOL voltage 0 -48 R90
WINDOW 0 -32 56 VBottom 2
WINDOW 3 32 56 VTop 2
WINDOW 123 0 0 Left 2
WINDOW 39 0 0 Left 2
SYMATTR InstName V1
SYMATTR Value 5
TEXT 16 -24 Left 2 !.lib 74hct.lib
