Version 4
SHEET 1 880 680
WIRE -368 -176 -672 -176
WIRE -400 -128 -368 -144
WIRE -512 -112 -480 -128
WIRE -672 -80 -672 -176
WIRE -672 -80 -704 -80
WIRE -384 -48 -400 -48
WIRE -384 -16 -400 -16
WIRE -384 96 -400 96
WIRE -384 128 -400 128
WIRE -384 224 -400 224
WIRE -384 256 -400 256
WIRE -384 368 -400 368
WIRE -384 400 -400 400
FLAG -272 416 S0_0
IOPIN -272 416 In
FLAG -400 400 S0_1
IOPIN -400 400 In
FLAG -400 368 S0_2
IOPIN -400 368 In
FLAG -160 432 S0_3
IOPIN -160 432 In
FLAG -400 256 S1_0
IOPIN -400 256 In
FLAG -400 224 S1_1
IOPIN -400 224 In
FLAG -272 272 S1_2
IOPIN -272 272 In
FLAG -160 288 S1_3
IOPIN -160 288 In
FLAG -272 144 S2_0
IOPIN -272 144 In
FLAG -160 160 S2_1
IOPIN -160 160 In
FLAG -400 128 S2_2
IOPIN -400 128 In
FLAG -400 96 S2_3
IOPIN -400 96 In
FLAG -400 -48 S3_0
IOPIN -400 -48 In
FLAG -400 -16 S3_1
IOPIN -400 -16 In
FLAG -272 0 S3_2
IOPIN -272 0 In
FLAG -160 16 S3_3
IOPIN -160 16 In
FLAG -512 -112 0
FLAG -704 -80 Overflow
IOPIN -704 -80 In
FLAG -48 0 Deslocamento_S3
IOPIN -48 0 Out
FLAG -48 144 Deslocamento_S2
IOPIN -48 144 Out
FLAG -48 272 Deslocamento_S1
IOPIN -48 272 Out
FLAG -48 416 Deslocamento_S0
IOPIN -48 416 Out
FLAG -256 -160 Deslocamento_Overflow
IOPIN -256 -160 Out
SYMBOL 74HCT\\74hct32 -336 -96 R0
WINDOW 3 298 150 Left 2
SYMATTR InstName U1
SYMBOL 74HCT\\74hct32 -224 -80 R0
WINDOW 3 308 135 Left 2
SYMATTR InstName U2
SYMBOL 74HCT\\74hct32 -112 -64 R0
SYMATTR InstName U3
SYMBOL 74HCT\\74hct32 -320 -224 R0
SYMATTR InstName U4
SYMBOL voltage -384 -128 R90
WINDOW 0 -32 56 VBottom 2
WINDOW 3 32 56 VTop 2
WINDOW 123 0 0 Left 2
WINDOW 39 0 0 Left 2
SYMATTR InstName V1
SYMATTR Value 0
SYMBOL 74HCT\\74hct32 -336 48 R0
WINDOW 3 301 141 Left 2
SYMATTR InstName U5
SYMBOL 74HCT\\74hct32 -224 64 R0
WINDOW 3 296 125 Left 2
SYMATTR InstName U6
SYMBOL 74HCT\\74hct32 -112 80 R0
SYMATTR InstName U7
SYMBOL 74HCT\\74hct32 -336 176 R0
WINDOW 3 411 145 Left 2
SYMATTR InstName U8
SYMBOL 74HCT\\74hct32 -224 192 R0
WINDOW 3 192 129 Left 2
SYMATTR InstName U9
SYMBOL 74HCT\\74hct32 -112 208 R0
SYMATTR InstName U10
SYMBOL 74HCT\\74hct32 -336 320 R0
WINDOW 3 416 137 Left 2
SYMATTR InstName U11
SYMBOL 74HCT\\74hct32 -224 336 R0
WINDOW 3 195 125 Left 2
SYMATTR InstName U12
SYMBOL 74HCT\\74hct32 -112 352 R0
SYMATTR InstName U13
TEXT -96 -88 Left 2 !.lib 74hct.lib
