Version 4
SHEET 1 1352 1144
WIRE -1120 -464 -1248 -464
WIRE -976 -464 -1120 -464
WIRE -1136 -432 -1248 -432
WIRE -992 -432 -1136 -432
WIRE -1056 -400 -1248 -400
WIRE -1232 -368 -1248 -368
WIRE -992 -320 -992 -432
WIRE -736 -320 -992 -320
WIRE -672 -320 -736 -320
WIRE -672 -288 -672 -320
WIRE -544 -288 -672 -288
WIRE -736 -272 -736 -320
WIRE -432 -256 -624 -256
WIRE -976 -240 -976 -464
WIRE -848 -240 -976 -240
WIRE -48 -240 -96 -240
WIRE 96 -240 -48 -240
WIRE 464 -240 320 -240
WIRE -1120 -224 -1120 -464
WIRE -1120 -224 -1328 -224
WIRE -1056 -224 -1056 -400
WIRE -1040 -224 -1056 -224
WIRE 608 -224 576 -224
WIRE -1136 -208 -1136 -432
WIRE -1136 -208 -1312 -208
WIRE -320 -208 -320 -240
WIRE -320 -208 -624 -208
WIRE 752 -208 720 -208
WIRE -1120 -192 -1120 -224
WIRE -1040 -192 -1120 -192
WIRE -624 -192 -624 -208
WIRE -624 -192 -928 -192
WIRE -208 -192 -208 -224
WIRE -208 -192 -608 -192
WIRE 96 -192 96 -240
WIRE 320 -176 320 -240
WIRE -1136 -160 -1136 -208
WIRE -1040 -160 -1136 -160
WIRE -1232 -144 -1232 -368
WIRE 208 -144 208 -160
WIRE 208 -144 -64 -144
WIRE -1312 -112 -1312 -208
WIRE -1232 -112 -1312 -112
WIRE -608 -112 -608 -192
WIRE -608 -112 -1120 -112
WIRE 464 -112 464 -208
WIRE 464 -112 -64 -112
WIRE -1328 -80 -1328 -224
WIRE -1232 -80 -1328 -80
WIRE 608 -80 608 -192
WIRE 608 -80 -64 -80
WIRE 752 -48 752 -176
WIRE 752 -48 -64 -48
WIRE -48 128 -48 -240
WIRE 96 128 -48 128
WIRE 464 128 320 128
WIRE 608 144 576 144
WIRE 752 160 720 160
WIRE 96 176 96 128
WIRE 320 192 320 128
WIRE 208 224 208 208
WIRE 208 224 -64 224
WIRE 464 256 464 160
WIRE 464 256 -64 256
WIRE 608 288 608 176
WIRE 608 288 -64 288
WIRE 752 320 752 192
WIRE 752 320 -64 320
WIRE -48 496 -48 128
WIRE 96 496 -48 496
WIRE 464 512 320 512
WIRE 608 528 576 528
WIRE 752 544 720 544
WIRE 96 560 96 496
WIRE 320 576 320 512
WIRE 208 608 208 592
WIRE 208 608 -64 608
WIRE 464 640 464 544
WIRE 464 640 -80 640
WIRE 608 672 608 560
WIRE 608 672 -80 672
WIRE 752 704 752 576
WIRE 752 704 -64 704
WIRE -48 880 -48 496
WIRE 96 880 -48 880
WIRE 464 880 320 880
WIRE 608 896 576 896
WIRE 752 912 720 912
WIRE 96 928 96 880
WIRE 320 944 320 880
WIRE 208 976 208 960
WIRE 208 976 -48 976
WIRE 464 1008 464 912
WIRE 464 1008 -48 1008
WIRE 608 1040 608 928
WIRE 608 1040 -64 1040
WIRE 752 1072 752 944
WIRE 752 1072 -48 1072
FLAG -1248 -368 SC3
IOPIN -1248 -368 In
FLAG -1248 -400 SC2
IOPIN -1248 -400 In
FLAG -1248 -432 SC1
IOPIN -1248 -432 In
FLAG -1248 -464 SC0
IOPIN -1248 -464 In
FLAG -64 -144 logic_S0_NOT
IOPIN -64 -144 In
FLAG -64 -112 logic_S0_AND
IOPIN -64 -112 In
FLAG -64 -80 logic_S0_OR
IOPIN -64 -80 In
FLAG -64 -48 logic_S0_X-OR
IOPIN -64 -48 In
FLAG 864 -192 Logic_S0
IOPIN 864 -192 Out
FLAG -64 224 logic_S1_NOT
IOPIN -64 224 In
FLAG -64 256 logic_S1_AND
IOPIN -64 256 In
FLAG -64 288 logic_S1_OR
IOPIN -64 288 In
FLAG -64 320 logic_S1_X-OR
IOPIN -64 320 In
FLAG 864 176 Logic_S1
IOPIN 864 176 Out
FLAG -64 608 logic_S2_NOT
IOPIN -64 608 In
FLAG -80 640 logic_S2_AND
IOPIN -80 640 In
FLAG -80 672 logic_S2_OR
IOPIN -80 672 In
FLAG -64 704 logic_S2_X-OR
IOPIN -64 704 In
FLAG 864 560 Logic_S2
IOPIN 864 560 Out
FLAG -48 976 logic_S3_NOT
IOPIN -48 976 In
FLAG -48 1008 logic_S3_AND
IOPIN -48 1008 In
FLAG -64 1040 logic_S3_OR
IOPIN -64 1040 In
FLAG -48 1072 logic_S3_X-OR
IOPIN -48 1072 In
FLAG 864 928 Logic_S3
IOPIN 864 928 Out
SYMBOL 74HCT\\74hct32 -384 -336 R0
SYMATTR InstName U1
SYMBOL 74HCT\\74hct32 -272 -320 R0
SYMATTR InstName U2
SYMBOL 74HCT\\74hct32 -160 -304 R0
SYMATTR InstName U3
SYMBOL 74HCT\\74hct04 -496 -352 R0
SYMATTR InstName U4
SYMBOL 74HCT\\74hct08 -688 -320 R0
SYMATTR InstName U5
SYMBOL 74HCT\\74hct04 -800 -304 R0
SYMATTR InstName U6
SYMBOL 74HCT\\74hct11 -992 -272 R0
SYMATTR InstName U7
SYMBOL 74HCT\\74hct11 -1184 -192 R0
SYMATTR InstName U8
SYMBOL 74HCT\\74hct08 256 -240 R0
SYMATTR InstName U10
SYMBOL 74HCT\\74hct04 144 -256 R0
SYMATTR InstName U11
SYMBOL 74HCT\\74hct32 512 -288 R0
SYMATTR InstName U13
SYMBOL 74HCT\\74hct32 656 -272 R0
SYMATTR InstName U14
SYMBOL 74HCT\\74hct32 800 -256 R0
SYMATTR InstName U15
SYMBOL 74HCT\\74hct08 256 128 R0
SYMATTR InstName U17
SYMBOL 74HCT\\74hct04 144 112 R0
SYMATTR InstName U18
SYMBOL 74HCT\\74hct32 512 80 R0
SYMATTR InstName U20
SYMBOL 74HCT\\74hct32 656 96 R0
SYMATTR InstName U21
SYMBOL 74HCT\\74hct32 800 112 R0
SYMATTR InstName U22
SYMBOL 74HCT\\74hct08 256 512 R0
SYMATTR InstName U24
SYMBOL 74HCT\\74hct04 144 496 R0
SYMATTR InstName U25
SYMBOL 74HCT\\74hct32 512 464 R0
SYMATTR InstName U27
SYMBOL 74HCT\\74hct32 656 480 R0
SYMATTR InstName U28
SYMBOL 74HCT\\74hct32 800 496 R0
SYMATTR InstName U29
SYMBOL 74HCT\\74hct08 256 880 R0
SYMATTR InstName U31
SYMBOL 74HCT\\74hct04 144 864 R0
SYMATTR InstName U32
SYMBOL 74HCT\\74hct32 512 832 R0
SYMATTR InstName U34
SYMBOL 74HCT\\74hct32 656 848 R0
SYMATTR InstName U35
SYMBOL 74HCT\\74hct32 800 864 R0
SYMATTR InstName U36
TEXT -520 -144 Left 2 !.lib 74hct.lib
