Version 4
SHEET 1 880 680
WIRE -16 16 -48 16
WIRE 0 16 -16 16
WIRE 0 48 -48 48
WIRE 0 144 0 48
WIRE -16 176 -16 16
WIRE 0 176 -16 176
FLAG -48 16 X
IOPIN -48 16 In
FLAG -48 48 Y
IOPIN -48 48 In
FLAG 112 160 Overflow
IOPIN 112 160 Out
FLAG 112 32 S
IOPIN 112 32 Out
SYMBOL 74HCT\\74hct86 48 -32 R0
SYMATTR InstName U1
SYMBOL 74HCT\\74hct08 48 96 R0
SYMATTR InstName U2
TEXT 80 112 Left 2 !.lib 74hct.lib
