Version 4
SHEET 1 880 680
FLAG -64 32 X0
IOPIN -64 32 In
FLAG -64 224 X2
IOPIN -64 224 In
FLAG -64 320 X3
IOPIN -64 320 In
FLAG -64 128 X1
IOPIN -64 128 In
FLAG 48 32 Y0
IOPIN 48 32 Out
FLAG 48 128 Y1
IOPIN 48 128 Out
FLAG 48 224 Y2
IOPIN 48 224 Out
FLAG 48 320 Y3
IOPIN 48 320 Out
SYMBOL 74HCT\\74hct04 -16 -32 R0
SYMATTR InstName U1
SYMBOL 74HCT\\74hct04 -16 64 R0
SYMATTR InstName U2
SYMBOL 74HCT\\74hct04 -16 160 R0
SYMATTR InstName U3
SYMBOL 74HCT\\74hct04 -16 256 R0
SYMATTR InstName U4
TEXT -80 -24 Left 2 !.lib 74hct.lib
