Version 4
SHEET 1 880 680
WIRE -208 -64 -224 -64
WIRE -208 -32 -224 -32
WIRE -208 64 -224 64
WIRE -208 96 -224 96
WIRE -208 192 -224 192
WIRE -208 224 -224 224
WIRE -208 320 -224 320
WIRE -208 352 -224 352
FLAG -224 -64 X0
IOPIN -224 -64 In
FLAG -224 64 X1
IOPIN -224 64 In
FLAG -224 192 X2
IOPIN -224 192 In
FLAG -224 320 X3
IOPIN -224 320 In
FLAG -224 -32 Y0
IOPIN -224 -32 In
FLAG -224 96 Y1
IOPIN -224 96 In
FLAG -224 224 Y2
IOPIN -224 224 In
FLAG -224 352 Y3
IOPIN -224 352 In
FLAG -96 -48 S0
IOPIN -96 -48 Out
FLAG -96 80 S1
IOPIN -96 80 Out
FLAG -96 208 S2
IOPIN -96 208 Out
FLAG -96 336 S3
IOPIN -96 336 Out
SYMBOL 74HCT\\74hct32 -160 -112 R0
SYMATTR InstName U1
SYMBOL 74HCT\\74hct32 -160 16 R0
SYMATTR InstName U2
SYMBOL 74HCT\\74hct32 -160 144 R0
SYMATTR InstName U3
SYMBOL 74HCT\\74hct32 -160 272 R0
SYMATTR InstName U4
TEXT -352 16 Left 2 !.lib 74hct.lib
