Version 4
SHEET 1 880 680
WIRE -128 -16 -144 -16
WIRE -112 -16 -128 -16
WIRE 176 0 0 0
WIRE -112 16 -144 16
WIRE 176 48 176 0
WIRE 48 64 -144 64
WIRE 64 64 48 64
WIRE -112 112 -112 16
WIRE -80 112 -112 112
WIRE 32 128 0 128
WIRE 64 128 64 96
WIRE 64 128 32 128
WIRE -128 144 -128 -16
WIRE -80 144 -128 144
WIRE 48 224 48 64
WIRE 192 224 48 224
WIRE -80 240 -80 144
WIRE -64 240 -80 240
WIRE 192 256 48 256
WIRE -112 272 -112 112
WIRE -64 272 -112 272
FLAG -144 -16 X
IOPIN -144 -16 In
FLAG -144 16 Y
IOPIN -144 16 In
FLAG -144 64 Vm
IOPIN -144 64 In
FLAG 304 240 S
IOPIN 304 240 Out
FLAG 288 64 Overflow
IOPIN 288 64 Out
SYMBOL 74HCT\\74hct08 -64 -64 R0
WINDOW 3 -59 121 Left 2
SYMATTR InstName U1
SYMBOL 74HCT\\74hct32 -32 64 R0
SYMATTR InstName U2
SYMBOL 74HCT\\74hct08 112 16 R0
SYMATTR InstName U3
SYMBOL 74HCT\\74hct32 224 0 R0
SYMATTR InstName U4
SYMBOL 74HCT\\74hct86 -16 192 R0
SYMATTR InstName U5
SYMBOL 74HCT\\74hct86 240 176 R0
SYMATTR InstName U6
TEXT 72 168 Left 2 !.lib 74hct.lib
