Version 4
SHEET 1 880 1120
WIRE 80 -32 64 -32
WIRE 80 16 80 -32
WIRE 144 16 80 16
WIRE 80 144 80 16
WIRE 144 144 80 144
WIRE 80 272 80 144
WIRE 144 272 80 272
WIRE 80 400 80 272
WIRE 144 400 80 400
WIRE 80 528 80 400
WIRE 144 528 80 528
WIRE 80 656 80 528
WIRE 144 656 80 656
WIRE 80 784 80 656
WIRE 144 784 80 784
WIRE 80 912 80 784
WIRE 144 912 80 912
FLAG 64 -32 Control
IOPIN 64 -32 In
FLAG 144 48 X0
IOPIN 144 48 In
FLAG 144 176 X1
IOPIN 144 176 In
FLAG 144 304 X2
IOPIN 144 304 In
FLAG 144 432 X3
IOPIN 144 432 In
FLAG 144 560 Y0
IOPIN 144 560 In
FLAG 144 688 Y1
IOPIN 144 688 In
FLAG 144 816 Y2
IOPIN 144 816 In
FLAG 144 944 Y3
IOPIN 144 944 In
FLAG 256 32 SX0
IOPIN 256 32 Out
FLAG 256 160 SX1
IOPIN 256 160 Out
FLAG 256 288 SX2
IOPIN 256 288 Out
FLAG 256 416 SX3
IOPIN 256 416 Out
FLAG 256 544 SY0
IOPIN 256 544 Out
FLAG 256 672 SY1
IOPIN 256 672 Out
FLAG 256 800 SY2
IOPIN 256 800 Out
FLAG 256 928 SY3
IOPIN 256 928 Out
SYMBOL 74HCT\\74hct08 192 -32 R0
SYMATTR InstName U1
SYMBOL 74HCT\\74hct08 192 96 R0
SYMATTR InstName U2
SYMBOL 74HCT\\74hct08 192 224 R0
SYMATTR InstName U3
SYMBOL 74HCT\\74hct08 192 352 R0
SYMATTR InstName U4
SYMBOL 74HCT\\74hct08 192 480 R0
SYMATTR InstName U5
SYMBOL 74HCT\\74hct08 192 608 R0
SYMATTR InstName U6
SYMBOL 74HCT\\74hct08 192 736 R0
SYMATTR InstName U7
SYMBOL 74HCT\\74hct08 192 864 R0
SYMATTR InstName U8
TEXT -40 -64 Left 2 !.lib 74hct.lib
