Version 4
SHEET 1 880 680
WIRE -48 16 -96 16
WIRE 208 16 128 16
WIRE -48 48 -96 48
WIRE 144 48 128 48
WIRE 144 80 144 48
WIRE 144 80 -64 80
WIRE -64 128 -64 80
WIRE -48 128 -64 128
WIRE 160 144 144 144
WIRE -48 160 -96 160
WIRE 208 176 144 176
WIRE -48 192 -96 192
WIRE 160 224 160 144
WIRE 160 224 -64 224
WIRE -64 272 -64 224
WIRE -48 272 -64 272
WIRE 160 288 144 288
WIRE -48 304 -96 304
WIRE 208 320 144 320
WIRE -48 336 -96 336
WIRE 160 368 160 288
WIRE 160 368 -64 368
WIRE -64 416 -64 368
WIRE -48 416 -64 416
WIRE 208 432 144 432
WIRE -48 448 -96 448
WIRE 208 464 144 464
WIRE -48 480 -96 480
FLAG -96 16 X0
IOPIN -96 16 In
FLAG -96 48 Y0
IOPIN -96 48 In
FLAG -96 160 X1
IOPIN -96 160 In
FLAG -96 192 Y1
IOPIN -96 192 In
FLAG -96 304 X2
IOPIN -96 304 In
FLAG -96 336 Y2
IOPIN -96 336 In
FLAG -96 448 X3
IOPIN -96 448 In
FLAG -96 480 Y3
IOPIN -96 480 In
FLAG 208 16 S0
IOPIN 208 16 Out
FLAG 208 176 S1
IOPIN 208 176 Out
FLAG 208 320 S2
IOPIN 208 320 Out
FLAG 208 432 Overflow
IOPIN 208 432 Out
FLAG 208 464 S3
IOPIN 208 464 Out
SYMBOL MS 32 32 R0
SYMATTR InstName X1
SYMBOL SC 48 160 R0
SYMATTR InstName X2
SYMBOL SC 48 304 R0
SYMATTR InstName X3
SYMBOL SC 48 448 R0
SYMATTR InstName X4
