Version 4
SHEET 1 880 680
WIRE -352 -304 -704 -304
WIRE -368 -288 -688 -288
WIRE -960 -272 -960 -304
WIRE -768 -272 -960 -272
WIRE -384 -272 -672 -272
WIRE -896 -256 -896 -304
WIRE -800 -256 -896 -256
WIRE -400 -256 -656 -256
WIRE -160 -256 -160 -288
WIRE -128 -256 -160 -256
WIRE -752 -240 -752 -304
WIRE -752 -240 -864 -240
WIRE -32 -240 -32 -288
WIRE -32 -240 -192 -240
WIRE -96 -224 -96 -288
WIRE -96 -224 -160 -224
WIRE -224 -192 -224 -288
WIRE -96 -192 -224 -192
WIRE -656 -176 -656 -256
WIRE -656 -176 -896 -176
WIRE -192 -176 -192 -240
WIRE -160 -176 -160 -224
WIRE -128 -176 -128 -256
WIRE -96 -176 -96 -192
WIRE -672 -160 -672 -272
WIRE -672 -160 -928 -160
WIRE -688 -144 -688 -288
WIRE -688 -144 -960 -144
WIRE -704 -128 -704 -304
WIRE -704 -128 -992 -128
WIRE -96 -64 -96 -80
WIRE -48 -64 -96 -64
WIRE -128 -32 -128 -80
WIRE -48 -32 -128 -32
WIRE 208 -32 144 -32
WIRE -160 0 -160 -80
WIRE -48 0 -160 0
WIRE 192 0 144 0
WIRE -192 32 -192 -80
WIRE -48 32 -192 32
WIRE 176 32 144 32
WIRE -992 48 -992 -128
WIRE -960 48 -960 -144
WIRE -928 48 -928 -160
WIRE -896 48 -896 -176
WIRE -864 48 -864 -240
WIRE -832 48 -832 -304
WIRE -800 48 -800 -256
WIRE -768 48 -768 -272
WIRE -288 64 -288 -256
WIRE -256 64 -288 64
WIRE -48 64 -144 64
WIRE 160 64 144 64
WIRE -288 96 -288 64
WIRE -48 96 -288 96
WIRE -288 128 -288 96
WIRE -48 128 -288 128
WIRE -288 160 -288 128
WIRE -48 160 -288 160
WIRE -352 192 -352 -304
WIRE 160 192 160 64
WIRE 160 192 -352 192
WIRE -368 208 -368 -288
WIRE 176 208 176 32
WIRE 176 208 -368 208
WIRE -384 224 -384 -272
WIRE 192 224 192 0
WIRE 192 224 -384 224
WIRE -400 240 -400 -256
WIRE 208 240 208 -32
WIRE 208 240 -400 240
FLAG -960 -304 X0
IOPIN -960 -304 In
FLAG -896 -304 X1
IOPIN -896 -304 In
FLAG -832 -304 X2
IOPIN -832 -304 In
FLAG -752 -304 X3
IOPIN -752 -304 In
FLAG -224 -288 Y0
IOPIN -224 -288 In
FLAG -160 -288 Y1
IOPIN -160 -288 In
FLAG -96 -288 Y2
IOPIN -96 -288 In
FLAG -32 -288 Y3
IOPIN -32 -288 In
FLAG -288 -336 0
FLAG -800 240 S0
IOPIN -800 240 Out
FLAG -832 240 S1
IOPIN -832 240 Out
FLAG -864 240 S2
IOPIN -864 240 Out
FLAG -896 240 S3
IOPIN -896 240 Out
FLAG -944 240 Overflow
IOPIN -944 240 Out
SYMBOL NOTs -144 -128 R90
SYMATTR InstName X1
SYMBOL Somador4B 48 48 R0
SYMATTR InstName X2
SYMBOL voltage -288 -240 R180
WINDOW 0 24 96 Left 2
WINDOW 3 24 16 Left 2
WINDOW 123 0 0 Left 2
WINDOW 39 0 0 Left 2
SYMATTR InstName V1
SYMATTR Value 0
SYMBOL 74HCT\\74hct04 -208 0 R0
SYMATTR InstName U1
SYMBOL Somador4B -880 144 R90
SYMATTR InstName X3
TEXT -640 -232 Left 2 !.lib 74hct.lib
