Version 4
SHEET 1 880 796
WIRE -448 128 -768 128
WIRE -384 128 -448 128
WIRE -320 128 -384 128
WIRE -256 128 -320 128
WIRE 480 128 416 128
WIRE 544 128 480 128
WIRE 608 128 544 128
WIRE 672 128 608 128
WIRE -768 144 -768 128
WIRE -768 144 -800 144
WIRE -704 144 -768 144
WIRE -624 144 -704 144
WIRE -544 144 -624 144
WIRE -464 144 -544 144
WIRE -176 208 -240 208
WIRE 528 224 384 224
WIRE -624 240 -624 224
WIRE -176 240 -624 240
WIRE 528 256 384 256
WIRE -544 272 -544 224
WIRE -176 272 -544 272
WIRE 528 288 384 288
WIRE -464 304 -464 224
WIRE -176 304 -464 304
WIRE -704 320 -704 224
WIRE -240 320 -240 208
WIRE -240 320 -704 320
WIRE 528 320 384 320
WIRE 528 352 384 352
WIRE 528 384 384 384
WIRE 528 416 384 416
WIRE -176 448 -224 448
WIRE 528 448 384 448
WIRE -176 480 -224 480
WIRE -176 512 -224 512
WIRE 528 528 384 528
WIRE 528 560 384 560
WIRE 528 592 384 592
WIRE -176 624 -240 624
WIRE 528 624 384 624
WIRE -176 656 -240 656
WIRE 528 656 384 656
WIRE -176 688 -240 688
WIRE -176 720 -240 720
FLAG 528 224 Overflow_ARI
IOPIN 528 224 Out
FLAG 528 256 S0
IOPIN 528 256 Out
FLAG 528 288 S1
IOPIN 528 288 Out
FLAG 528 320 S2
IOPIN 528 320 Out
FLAG 528 352 S3
IOPIN 528 352 Out
FLAG 528 384 S4
IOPIN 528 384 Out
FLAG 528 416 S5
IOPIN 528 416 Out
FLAG 528 448 S6
IOPIN 528 448 Out
FLAG 528 528 Overfow_DESLOC
IOPIN 528 528 Out
FLAG 528 560 DESLOC_S0
IOPIN 528 560 Out
FLAG 528 592 DESLOC_S1
IOPIN 528 592 Out
FLAG 528 624 DESLOC_S2
IOPIN 528 624 Out
FLAG 528 656 DESLOC_S3
IOPIN 528 656 Out
FLAG -240 624 Logic_S0
IOPIN -240 624 Out
FLAG -240 656 Logic_S1
IOPIN -240 656 Out
FLAG -240 688 Logic_S2
IOPIN -240 688 Out
FLAG -240 720 Logic_S3
IOPIN -240 720 Out
FLAG -224 448 X_IGUAL_Y
IOPIN -224 448 Out
FLAG -224 480 X_MAIOR_Y
IOPIN -224 480 Out
FLAG -224 512 X_MENOR_Y
IOPIN -224 512 Out
FLAG -800 144 0
FLAG 672 128 0
FLAG -256 48 X0
IOPIN -256 48 Out
FLAG -320 48 X1
IOPIN -320 48 Out
FLAG -384 48 X2
IOPIN -384 48 Out
FLAG -448 48 X3
IOPIN -448 48 Out
FLAG 608 48 Y0
IOPIN 608 48 Out
FLAG 544 48 Y1
IOPIN 544 48 Out
FLAG 480 48 Y2
IOPIN 480 48 Out
FLAG 416 48 Y3
IOPIN 416 48 Out
FLAG -144 144 X0
IOPIN -144 144 In
FLAG -96 144 X1
IOPIN -96 144 In
FLAG -48 144 X2
IOPIN -48 144 In
FLAG 0 144 X3
IOPIN 0 144 In
FLAG 80 144 Y0
IOPIN 80 144 In
FLAG 128 144 Y1
IOPIN 128 144 In
FLAG 176 144 Y2
IOPIN 176 144 In
FLAG 224 144 Y3
IOPIN 224 144 In
SYMBOL ULA -16 464 R0
SYMATTR InstName X1
SYMBOL voltage -464 240 R180
WINDOW 0 24 96 Left 2
WINDOW 3 24 16 Left 2
WINDOW 123 0 0 Left 2
WINDOW 39 0 0 Left 2
SYMATTR InstName V1
SYMATTR Value 5
SYMBOL voltage -544 240 R180
WINDOW 0 24 96 Left 2
WINDOW 3 24 16 Left 2
WINDOW 123 0 0 Left 2
WINDOW 39 0 0 Left 2
SYMATTR InstName V2
SYMATTR Value 5
SYMBOL voltage -624 240 R180
WINDOW 0 24 96 Left 2
WINDOW 3 24 16 Left 2
WINDOW 123 0 0 Left 2
WINDOW 39 0 0 Left 2
SYMATTR InstName V3
SYMATTR Value 5
SYMBOL voltage -704 240 R180
WINDOW 0 24 96 Left 2
WINDOW 3 24 16 Left 2
WINDOW 123 0 0 Left 2
WINDOW 39 0 0 Left 2
SYMATTR InstName V4
SYMATTR Value 5
SYMBOL voltage -448 32 R0
WINDOW 123 0 0 Left 2
WINDOW 39 0 0 Left 2
SYMATTR InstName V5
SYMATTR Value 5
SYMBOL voltage -384 32 R0
WINDOW 123 0 0 Left 2
WINDOW 39 0 0 Left 2
SYMATTR InstName V6
SYMATTR Value 5
SYMBOL voltage -320 32 R0
WINDOW 123 0 0 Left 2
WINDOW 39 0 0 Left 2
SYMATTR InstName V7
SYMATTR Value 0
SYMBOL voltage -256 32 R0
WINDOW 123 0 0 Left 2
WINDOW 39 0 0 Left 2
SYMATTR InstName V8
SYMATTR Value 0
SYMBOL voltage 416 32 R0
WINDOW 123 0 0 Left 2
WINDOW 39 0 0 Left 2
SYMATTR InstName V9
SYMATTR Value 5
SYMBOL voltage 480 32 R0
WINDOW 123 0 0 Left 2
WINDOW 39 0 0 Left 2
SYMATTR InstName V10
SYMATTR Value 0
SYMBOL voltage 544 32 R0
WINDOW 123 0 0 Left 2
WINDOW 39 0 0 Left 2
SYMATTR InstName V11
SYMATTR Value 5
SYMBOL voltage 608 32 R0
WINDOW 123 0 0 Left 2
WINDOW 39 0 0 Left 2
SYMATTR InstName V12
SYMATTR Value 0
TEXT -616 720 Left 2 !.lib 74hct.lib
TEXT -600 752 Left 2 !.tran 10m
