Version 4
SHEET 1 880 680
WIRE 32 0 16 0
WIRE 32 32 16 32
WIRE 32 128 16 128
WIRE 32 160 16 160
WIRE 32 256 16 256
WIRE 32 288 16 288
WIRE 32 384 16 384
WIRE 32 416 16 416
FLAG 16 0 X0
IOPIN 16 0 In
FLAG 16 32 Y0
IOPIN 16 32 In
FLAG 16 128 X1
IOPIN 16 128 In
FLAG 16 160 Y1
IOPIN 16 160 In
FLAG 16 256 X2
IOPIN 16 256 In
FLAG 16 288 Y2
IOPIN 16 288 In
FLAG 16 384 X3
IOPIN 16 384 In
FLAG 16 416 Y3
IOPIN 16 416 In
FLAG 144 16 S0
IOPIN 144 16 Out
FLAG 144 144 S1
IOPIN 144 144 Out
FLAG 144 272 S2
IOPIN 144 272 Out
FLAG 144 400 S3
IOPIN 144 400 Out
SYMBOL 74HCT\\74hct86 80 -48 R0
SYMATTR InstName U1
SYMBOL 74HCT\\74hct86 80 80 R0
SYMATTR InstName U2
SYMBOL 74HCT\\74hct86 80 208 R0
SYMATTR InstName U3
SYMBOL 74HCT\\74hct86 80 336 R0
SYMATTR InstName U5
TEXT -88 80 Left 2 !.lib 74hct.lib
